%nprocshared=4
%Chk=x
#p M062X/Gen SCF=(MAXCYCLE=1000) field=x+8
 
polar
 
-1 1
    C            0.613146075611     1.296817574710    -0.001408652073
    C           -0.054498764942    -0.101727893662    -0.001088564526
    H           -0.135232499598     2.094735817787    -0.000936517573
    H            1.255589748430     1.392531005997    -0.884205440087
    H            1.256637717162     1.392473067087     0.880634402951
    O           -1.324128058114    -0.123476765848     0.001602292852
    O            0.755237071679    -1.080593442882     0.000555231991

C     0 
S   5   1.00
   5240.6353000              0.0009370        
    782.2048000              0.0072280        
    178.3508300              0.0363440        
     50.8159420              0.1306000        
     16.8235620              0.3189310        
S   2   1.00
      6.1757760              0.4387420        
      2.4180490              0.2149740        
S   1   1.00
      0.5119000              1.0000000        
S   1   1.00
      0.1565900              1.0000000        
S   1   1.00
      0.0479000              1.0000000        
P   4   1.00
     18.8418000              0.0138870        
      4.1592400              0.0862790        
      1.2067100              0.2887440        
      0.3855400              0.4994110        
P   1   1.00
      0.1219400              1.0000000        
P   1   1.00
      0.0385680              1.0000000        
D   2   1.00
      1.2067000              0.2628500        
      0.3855000              0.8043000        
D   2   1.00
      0.1219000              0.6535000        
      0.0386000              0.8636000        
****
H     0 
S   4   1.00
     33.8650140              0.0060680        
      5.0947880              0.0453160        
      1.1587860              0.2028460        
      0.3258400              0.5037090        
S   1   1.00
      0.1027410              1.0000000        
S   1   1.00
      0.0324000              1.0000000        
P   2   1.00
      1.1588000              0.1884400        
      0.3258000              0.8824200        
P   2   1.00
      0.1027000              0.1178000        
      0.0324000              0.0042000        
****
O     0 
S   5   1.00
  10662.2850000              0.0007990        
   1599.7097000              0.0061530        
    364.7252600              0.0311570        
    103.6517900              0.1155960        
     33.9058050              0.3015520        
S   2   1.00
     12.2874690              0.4448700        
      4.7568050              0.2431720        
S   1   1.00
      1.0042710              1.0000000        
S   1   1.00
      0.3006860              1.0000000        
S   1   1.00
      0.0900300              1.0000000        
P   4   1.00
     34.8564630              0.0156480        
      7.8431310              0.0981970        
      2.3062490              0.3077680        
      0.7231640              0.4924700        
P   1   1.00
      0.2148820              1.0000000        
P   1   1.00
      0.0638500              1.0000000        
D   2   1.00
      2.3062000              0.2027000        
      0.7232000              0.5791000        
D   2   1.00
      0.2149000              0.7854500        
      0.0639000              0.5338700        
****


